Circuit: * C:\Users\CAP_1\Documents\LTspiceXVII\opamp_cir.asc

Direct Newton iteration for .op point succeeded.
.step v2=0.001 v1=0.001
.step v2=1.001 v1=0.001
.step v2=2.001 v1=0.001
.step v2=3.001 v1=0.001
.step v2=3.25 v1=0.001
.step v2=0.001 v1=1.001
.step v2=1.001 v1=1.001
.step v2=2.001 v1=1.001
.step v2=3.001 v1=1.001
.step v2=3.25 v1=1.001
.step v2=0.001 v1=2.001
.step v2=1.001 v1=2.001
.step v2=2.001 v1=2.001
.step v2=3.001 v1=2.001
.step v2=3.25 v1=2.001
.step v2=0.001 v1=3.001
.step v2=1.001 v1=3.001
.step v2=2.001 v1=3.001
.step v2=3.001 v1=3.001
.step v2=3.25 v1=3.001
.step v2=0.001 v1=3.25
.step v2=1.001 v1=3.25
.step v2=2.001 v1=3.25
.step v2=3.001 v1=3.25
.step v2=3.25 v1=3.25

Date: Wed Dec 18 15:02:19 2019
Total elapsed time: 2.117 seconds.

tnom = 27
temp = 27
method = modified trap
totiter = 2182
traniter = 2175
tranpoints = 1040
accept = 1036
rejected = 4
matrix size = 39
fillins = 8
solver = Normal
Matrix Compiler1: 2.52 KB object code size  0.9/0.3/[0.2]
Matrix Compiler2: 3.99 KB object code size  0.4/0.5/[0.3]

