Circuit: * C:\Users\CAP_1\Documents\LTspiceXVII\opamp_cir_pwm.asc

Direct Newton iteration for .op point succeeded.

Date: Wed Dec 18 15:52:43 2019
Total elapsed time: 0.394 seconds.

tnom = 27
temp = 27
method = modified trap
totiter = 23571
traniter = 23549
tranpoints = 11694
accept = 9523
rejected = 2171
matrix size = 24
fillins = 7
solver = Normal
Matrix Compiler1: 1.60 KB object code size  0.4/0.2/[0.1]
Matrix Compiler2: off  [0.2]/0.3/0.3

